Git is a version control system.
Git is free software.
New line.
Git has a mutable index called stage.

